147

 O                 -5.86437300    2.09309400   -2.44837300
 H                 -5.77474000    1.12216700   -2.34124900
 O                 -3.72036900    3.87659900   -2.24445600
 H                 -4.19316000    3.48177700   -3.00008600
 O                 -2.54174100    4.24457300    0.30571700
 O                 -5.78890700    2.70394600    1.18945900
 O                 -5.30967000    5.13749000    2.53433600
 H                 -6.18634300    4.80366000    2.28137300
 C                 -4.47513600    3.99769900    2.66656400
 H                 -4.80792900    3.35166600    3.49350500
 H                 -3.47152900    4.36288700    2.89896300
 O                 -5.78295400   -3.52827200   -2.07541700
 H                 -4.84383400   -3.80994400   -2.10719000
 O                 -6.21088500   -0.73741300   -2.17817700
 H                 -6.18779600   -1.40355600   -2.88916600
 O                 -5.23363100    0.75134700    0.03795700
 O                 -5.65053600   -2.60918700    1.49088700
 O                 -0.74291800   -6.12848100   -2.13796800
 H                 -0.52687100   -7.05986100   -2.30455200
 O                 -3.26736200   -4.90191900   -2.16680800
 H                 -2.71448000   -5.09094100   -2.94349800
 O                 -3.92995100   -3.40251100    0.12157600
 O                 -1.50956200   -5.85093100    1.46160400
 O                 -4.13619800   -5.72886000    2.65289800
 H                 -4.64342700   -5.73823700    3.47805700
 O                  4.69068500   -4.68813400   -1.67136500
 H                  4.21770900   -5.04498700   -2.44274300
 O                  2.09555500   -5.75906800   -1.84331600
 H                  1.15285600   -5.60183600   -2.04604800
 O                  0.27173700   -4.94066000    0.23755400
 O                  3.59964300   -4.58922600    1.80205400
 O                  1.89595400   -3.71048600    4.01672900
 H                  1.48862200   -2.86699100    3.76413500
 O                  6.80065300    0.72914000   -1.65929100
 H                  5.96085000    1.17608000   -1.88711600
 O                  6.05921900   -2.08219500   -1.75001700
 H                  5.48017500   -2.87003300   -1.77106900
 O                  4.25606300   -2.86706800    0.36384800
 O                  6.06384500   -0.01897600    1.85232400
 O                  6.51530600   -2.36364600    3.30411400
 H                  7.13771300   -1.62491900    3.19770300
 O                  2.69693600    4.52062900   -2.45011300
 H                  3.09603900    4.05343800   -3.20428700
 O                  4.40924800    2.29498200   -2.29150700
 H                  3.82121200    1.56711400   -2.58019600
 O                  4.88493900    1.33608400    0.40678300
 O                  3.97274200    4.86577100    0.94924900
 O                  6.46130900    4.18088300    2.10061400
 H                  6.23095200    5.06538500    1.77106500
 O                 -2.34120700    6.36787300   -1.57826000
 H                 -2.60087900    5.47294200   -1.87092500
 O                  0.57033600    6.30361800   -1.75818100
 H                  1.22000500    5.71207600   -2.18103000
 O                  1.78907000    4.47970900    0.20940500
 O                 -1.33497000    5.49785200    1.83851400
 O                  0.81020300    6.32130400    3.33901900
 H                 -0.07466500    6.72069600    3.29012800
 O                 -7.30017900   -0.83520500    2.79775900
 H                 -7.42567800   -1.79415600    2.70457800
 C                 -6.00871100    1.93775500    0.02314500
 H                 -7.07660800    1.69813300    0.01906600
 C                 -5.60951100    2.74506300   -1.21933300
 H                 -6.20999900    3.66321800   -1.22840200
 C                 -4.13067900    3.13257200   -1.10151600
 H                 -3.52937100    2.21580200   -1.03000100
 C                 -3.93142000    3.95971100    0.16254200
 H                 -4.50069300    4.89182000    0.07507600
 C                 -4.43247700    3.16637200    1.38790100
 H                 -3.77193300    2.30230800    1.53908600
 C                 -5.33267600   -3.37829800    0.35084700
 H                 -5.69583300   -4.38649100    0.56713500
 C                 -6.01011100   -2.78712700   -0.89241300
 H                 -7.09394400   -2.80097900   -0.72685300
 C                 -5.55666100   -1.33768000   -1.06380600
 H                 -4.46841000   -1.32718500   -1.22367300
 C                 -5.86631300   -0.52105800    0.18201800
 H                 -6.95151400   -0.40167600    0.28623400
 C                 -5.30863900   -1.20507100    1.44532000
 H                 -4.21707200   -1.09222300    1.45193700
 C                 -5.90112900   -0.61861800    2.72608800
 H                 -5.38098500   -1.05490600    3.59287300
 H                 -5.74696900    0.46342500    2.73689300
 C                 -0.66133600   -5.99032700    0.34466900
 H                 -0.14256600   -6.94328300    0.49888700
 C                 -1.51995500   -6.04487100   -0.93344500
 H                 -2.17878500   -6.91897800   -0.85818500
 C                 -2.38893000   -4.79795200   -1.04928300
 H                 -1.74168200   -3.91683600   -1.15899900
 C                 -3.23523200   -4.64629700    0.21018700
 H                 -3.94875600   -5.47524600    0.26104300
 C                 -2.34301400   -4.67624500    1.46613300
 H                 -1.71072300   -3.77833000    1.47443100
 C                 -3.15675900   -4.70108200    2.75121200
 H                 -2.46881500   -4.87650800    3.59044500
 H                 -3.62704000   -3.71706900    2.87929600
 C                  4.38433400   -4.22891400    0.67867000
 H                  5.41381400   -4.46619600    0.96139400
 C                  3.94190800   -5.07048100   -0.52801700
 H                  4.13756200   -6.12619800   -0.28562400
 C                  2.44545700   -4.90106200   -0.76665000
 H                  2.25858200   -3.85077600   -1.03623400
 C                  1.65979800   -5.21526200    0.50862800
 H                  1.78086700   -6.27850700    0.75687700
 C                  2.19229900   -4.35435000    1.66844700
 H                  2.01322100   -3.29647700    1.42644800
 C                  1.56280800   -4.66795400    3.02298600
 H                  0.47531700   -4.77129600    2.90349100
 H                  1.95680000   -5.62314400    3.38390800
 C                  6.16088000    0.75738700    0.68138600
 H                  6.89429700    1.54074600    0.89414300
 C                  6.59943300   -0.08534200   -0.52644200
 H                  7.57624900   -0.52731900   -0.29806500
 C                  5.59160000   -1.22434500   -0.73346800
 H                  4.62461700   -0.77202500   -1.01307500
 C                  5.37749200   -1.98899400    0.58217100
 H                  6.27554300   -2.58182200    0.79013400
 C                  5.09324700   -1.08326700    1.79169000
 H                  4.08649200   -0.65625400    1.69748100
 C                  5.22055100   -1.80600100    3.13216500
 H                  4.98776400   -1.08650300    3.93254600
 H                  4.50495400   -2.62974500    3.19434500
 C                  3.04275200    5.03576100   -0.10622200
 H                  2.95706900    6.11512100   -0.25478400
 C                  3.60372100    4.35596600   -1.36236800
 H                  4.55732900    4.84833500   -1.60099800
 C                  3.86616300    2.87554800   -1.09852700
 H                  2.91638700    2.38866200   -0.85472700
 C                  4.80998600    2.72158000    0.09260900
 H                  5.79977000    3.11304900   -0.16798400
 C                  4.25475900    3.49790300    1.30418800
 H                  3.33369400    3.00216200    1.63907400
 C                  5.23601000    3.56712300    2.47009100
 H                  4.75454700    4.10256600    3.30206400
 H                  5.47481900    2.55397600    2.80505900
 C                 -2.16166000    5.56433300    0.69913700
 H                 -3.04565900    6.12947900    1.00705000
 C                 -1.46386100    6.25835800   -0.48233300
 H                 -1.23347700    7.28651900   -0.17840300
 C                 -0.14173200    5.54661900   -0.79784400
 H                 -0.37393000    4.54135000   -1.18142100
 C                  0.69649000    5.37996400    0.48085100
 H                  1.08976700    6.35935400    0.77752800
 C                 -0.09013400    4.79539100    1.66252300
 H                 -0.29038700    3.73229400    1.47785300
 C                  0.63510900    4.95751400    2.99816200
 H                  0.06863600    4.41963900    3.77472800
 H                  1.63273100    4.51636200    2.93066200




